20
	-311.7012714470
C -1.05775 1.52728 2.11209
C -0.60661 1.35703 0.86643
C 0.03147 0.12474 0.36993
C -0.30333 -1.11034 0.75297
H -1.53430 2.45563 2.42379
H -0.95193 0.74442 2.86400
H -0.68298 2.18358 0.15553
H 0.83515 0.25210 -0.35861
H -1.12534 -1.28855 1.44715
H 0.22639 -1.98180 0.37053
C 3.34931 -1.40659 0.29993
C 3.77707 -0.22732 -0.16077
C 3.84448 1.01624 0.62828
C 3.04400 1.31573 1.65559
H 3.30817 -2.28541 -0.34227
H 3.03680 -1.53246 1.33657
H 4.12158 -0.15908 -1.19589
H 4.60405 1.73895 0.31984
H 2.23993 0.64941 1.96671
H 3.15564 2.24901 2.20561
