20
	-311.7018091490
C -0.13413 -1.49968 1.19017
C -0.09523 -0.16623 1.25351
C -0.38161 0.73358 0.12307
C -0.10949 0.45634 -1.15552
H 0.10886 -2.11709 2.05399
H -0.42332 -2.01572 0.27432
H 0.16085 0.31542 2.19958
H -0.83332 1.69682 0.37406
H 0.39210 -0.46902 -1.43716
H -0.36186 1.15247 -1.95444
C 2.92913 1.68016 1.00990
C 3.37522 0.45080 1.28313
C 3.23618 -0.70499 0.38068
C 3.28648 -0.63285 -0.95206
H 3.07784 2.50590 1.70471
H 2.38113 1.88801 0.09115
H 3.86631 0.26182 2.24134
H 3.09362 -1.67761 0.85730
H 3.47062 0.31366 -1.46070
H 3.15847 -1.51739 -1.57485
