20
	-311.7019050309
C -0.22090 -0.03948 -0.17423
C -0.49987 0.59455 -1.31662
C -0.07560 0.14188 -2.65391
C 0.10191 -1.13441 -3.00873
H -0.57621 0.34069 0.78263
H 0.38550 -0.94520 -0.15659
H -1.06751 1.52783 -1.28249
H 0.08575 0.92487 -3.39956
H -0.09162 -1.94972 -2.31153
H 0.43491 -1.40388 -4.01031
C 2.68790 -2.94245 -0.14801
C 2.88582 -2.06010 -1.13197
C 3.16791 -0.62855 -0.92472
C 3.92579 -0.14526 0.06266
H 2.49945 -3.99513 -0.35471
H 2.70054 -2.63308 0.89780
H 2.81505 -2.39401 -2.17020
H 2.71436 0.05673 -1.64401
H 4.42523 -0.80743 0.77074
H 4.08179 0.92549 0.18634
