20
	-311.7015328430
C -0.78275 1.22906 1.00989
C -0.08967 0.98900 -0.10593
C -0.11551 -0.28595 -0.84498
C -0.20657 -1.49090 -0.27500
H -0.70832 2.18279 1.53042
H -1.45804 0.48280 1.42987
H 0.54447 1.77305 -0.52577
H -0.02657 -0.21576 -1.93184
H -0.24329 -1.60178 0.80945
H -0.23876 -2.40251 -0.87016
C 4.07676 1.15226 0.88897
C 3.25366 0.34128 0.21967
C 3.18562 0.25030 -1.24988
C 3.33755 1.28526 -2.08101
H 4.06988 1.19652 1.97715
H 4.79451 1.78718 0.36848
H 2.57799 -0.31588 0.77173
H 2.96852 -0.73808 -1.66192
H 3.50085 2.29492 -1.70224
H 3.29537 1.15947 -3.16211
