20
	-311.7015749832
C -0.23567 -0.91833 2.34572
C -0.33728 0.03450 1.41471
C -0.09381 -0.17243 -0.02416
C -0.40434 -1.28713 -0.69055
H -0.44387 -0.71467 3.39525
H 0.06847 -1.93288 2.08535
H -0.59060 1.05294 1.71886
H 0.36803 0.66242 -0.55605
H -0.90642 -2.12108 -0.19883
H -0.18035 -1.39594 -1.75079
C 2.33227 2.84682 0.72857
C 2.56619 1.72533 1.41595
C 3.14515 0.49815 0.84021
C 4.08636 0.48020 -0.10679
H 1.91849 3.73362 1.20683
H 2.54129 2.90778 -0.34015
H 2.29423 1.68080 2.47333
H 2.76263 -0.44438 1.23829
H 4.51995 1.40340 -0.49280
H 4.46320 -0.45630 -0.51556
