20
	-311.7011510756
C -1.40336 -1.37415 1.62192
C -0.49519 -0.54303 1.10411
C -0.19451 -0.42048 -0.33346
C -0.24389 -1.42700 -1.21092
H -1.57132 -1.43463 2.69632
H -2.01981 -2.01003 0.98556
H 0.07096 0.11555 1.76659
H 0.11208 0.57019 -0.67770
H -0.48905 -2.44243 -0.89782
H -0.03235 -1.26968 -2.26786
C 3.02889 1.13294 1.46068
C 2.99784 0.06472 0.65856
C 3.30626 0.08799 -0.78248
C 4.21689 0.88323 -1.34999
H 2.81309 1.05108 2.52530
H 3.26304 2.12558 1.07471
H 2.70231 -0.90273 1.07188
H 2.74318 -0.61410 -1.40137
H 4.82877 1.56127 -0.75407
H 4.39128 0.87126 -2.42502
