20
	-311.7019053751
C -0.49816 -1.15781 1.08678
C -0.15165 -0.29470 0.12733
C -0.24124 -0.57326 -1.31704
C -1.22407 -1.27315 -1.88892
H -0.42971 -0.89618 2.14189
H -0.85403 -2.15944 0.84248
H 0.24939 0.68245 0.40811
H 0.56257 -0.16522 -1.93361
H -2.06103 -1.65696 -1.30454
H -1.23020 -1.47322 -2.95947
C 2.64198 -2.57937 -1.14872
C 3.44608 -1.70676 -1.76280
C 3.50264 -0.26369 -1.46677
C 3.25062 0.28294 -0.27351
H 2.65819 -3.63787 -1.40490
H 1.93132 -2.26231 -0.38521
H 4.10714 -2.06062 -2.55791
H 3.78817 0.38794 -2.29681
H 3.00630 -0.33240 0.59243
H 3.29144 1.36106 -0.12309
