20
	-311.7013576069
C -0.03722 0.40743 1.98768
C 0.19861 0.51556 0.67687
C -0.33895 -0.39578 -0.34861
C -1.53875 -0.97973 -0.29212
H 0.36913 1.12711 2.69755
H -0.63547 -0.40941 2.39280
H 0.85281 1.31397 0.31961
H 0.30491 -0.57421 -1.21279
H -2.22647 -0.78335 0.53110
H -1.87858 -1.65921 -1.07260
C 3.25543 -0.75024 -0.60470
C 3.60277 0.51108 -0.87680
C 4.01926 1.50864 0.12584
C 3.62577 1.52289 1.40302
H 2.94602 -1.43577 -1.39249
H 3.27922 -1.14289 0.41189
H 3.60312 0.84612 -1.91710
H 4.69267 2.29263 -0.22942
H 2.91838 0.78866 1.78894
H 3.98957 2.27896 2.09750
