20
	-311.7012741122
C -0.53800 1.93925 1.51467
C 0.22690 1.19377 0.71305
C 0.08422 -0.26317 0.54089
C -0.24508 -1.11232 1.51818
H -0.37671 3.01137 1.61966
H -1.36119 1.50147 2.08040
H 1.01470 1.66965 0.12429
H 0.29286 -0.65157 -0.45870
H -0.40452 -0.76595 2.53994
H -0.35505 -2.17983 1.33130
C 3.99777 1.08034 -0.40106
C 3.40894 -0.11738 -0.34260
C 3.00625 -0.90462 -1.52211
C 2.51614 -0.38007 -2.64896
H 4.25282 1.63215 0.50259
H 4.25765 1.53759 -1.35639
H 3.20338 -0.56641 0.63203
H 3.10395 -1.99005 -1.43795
H 2.35608 0.69409 -2.74890
H 2.24959 -1.00503 -3.50014
