20
	-311.7021446526
C 0.77542 -1.59451 2.71348
C -0.20449 -0.68802 2.66554
C -0.64688 -0.00233 1.43794
C -0.63727 -0.54571 0.21680
H 1.05104 -2.07866 3.64948
H 1.34615 -1.86465 1.82443
H -0.71560 -0.40361 3.58875
H -1.01801 1.01863 1.56041
H -0.32262 -1.57761 0.06001
H -0.95727 0.01712 -0.65919
C 2.68413 -1.77031 -0.84321
C 3.63960 -1.65425 0.08421
C 4.02149 -0.39185 0.74250
C 3.17668 0.60758 1.01064
H 2.43055 -2.73483 -1.28134
H 2.13639 -0.89880 -1.20216
H 4.20041 -2.54430 0.38156
H 5.06947 -0.29952 1.03863
H 2.11320 0.53350 0.78113
H 3.52073 1.52424 1.48799
