20
	-311.7013529373
C -0.41789 1.15400 0.53404
C -0.33677 1.17670 -0.79962
C -0.35581 -0.01482 -1.66775
C 0.07524 -1.22923 -1.31332
H -0.38697 2.07146 1.12010
H -0.52845 0.21889 1.08310
H -0.26923 2.14151 -1.30860
H -0.74756 0.13410 -2.67704
H 0.51769 -1.41306 -0.33409
H 0.01158 -2.07320 -1.99885
C 3.21602 -1.21362 0.96141
C 2.94679 0.02473 0.53764
C 3.10413 1.24223 1.35253
C 4.05090 1.42160 2.27736
H 3.10298 -2.07441 0.30322
H 3.54791 -1.40658 1.98212
H 2.55935 0.16639 -0.47371
H 2.39088 2.04490 1.15230
H 4.80943 0.66166 2.46804
H 4.10820 2.33844 2.86253
