20
	-311.7015383986
C -0.04297 -1.18364 2.39962
C 0.04303 -0.01101 1.76513
C -0.19732 0.17987 0.32358
C -1.11453 -0.48445 -0.38405
H 0.12846 -1.26507 3.47215
H -0.27992 -2.10220 1.86137
H 0.33750 0.87885 2.32647
H 0.42774 0.92633 -0.17174
H -1.78471 -1.20315 0.08879
H -1.23464 -0.32063 -1.45404
C 3.41386 1.75967 0.88835
C 3.29729 0.44546 1.09863
C 3.12031 -0.55969 0.03538
C 3.68591 -0.49012 -1.17228
H 3.56059 2.45771 1.71149
H 3.35701 2.17949 -0.11675
H 3.30382 0.06702 2.12360
H 2.48151 -1.41074 0.28237
H 4.36370 0.32273 -1.43530
H 3.50162 -1.25004 -1.93034
