20
	-311.7013403015
C -0.67045 -0.04910 1.24161
C -0.14119 0.32263 0.07356
C -0.13681 -0.51615 -1.13815
C 0.06822 -1.83662 -1.14049
H -0.62358 0.59693 2.11710
H -1.17812 -1.00772 1.35363
H 0.32484 1.30649 -0.01850
H -0.28947 0.00135 -2.08920
H 0.27338 -2.37595 -0.21501
H 0.04589 -2.41627 -2.06234
C 3.14767 1.08884 -1.67712
C 3.71878 1.56389 -0.56585
C 3.49193 1.04942 0.79694
C 3.07477 -0.18387 1.09585
H 3.37880 1.51263 -2.65354
H 2.43222 0.26663 -1.64909
H 4.40415 2.41119 -0.64821
H 3.69423 1.74879 1.61182
H 2.88712 -0.92879 0.32238
H 2.90067 -0.48800 2.12671
