20
	-311.7019052364
C -0.14037 -1.78924 1.42886
C 0.18165 -1.76134 0.13221
C -0.09975 -0.63243 -0.77223
C -1.20587 0.11382 -0.72276
H 0.07368 -2.65655 2.05202
H -0.62230 -0.93618 1.90813
H 0.71036 -2.61216 -0.30480
H 0.66478 -0.41829 -1.52216
H -2.00434 -0.10216 -0.01201
H -1.35424 0.95488 -1.39860
C 3.56143 -1.43279 -0.60189
C 3.61705 -0.21320 -1.14561
C 3.38440 1.04716 -0.41715
C 2.57077 1.18052 0.63407
H 3.72605 -2.32853 -1.19959
H 3.36053 -1.57239 0.46035
H 3.86709 -0.11853 -2.20562
H 3.91424 1.92534 -0.79465
H 1.98427 0.34324 1.01268
H 2.45274 2.13923 1.13737
