20
	-311.7019044576
C 0.28867 -0.58448 2.23116
C -0.60317 0.22833 1.65764
C -0.76173 0.41017 0.20339
C -0.50966 -0.52536 -0.71723
H 0.34598 -0.68374 3.31431
H 0.99992 -1.16114 1.63950
H -1.26323 0.82587 2.29147
H -1.12838 1.38697 -0.12304
H -0.18527 -1.52716 -0.43546
H -0.62996 -0.32164 -1.78054
C 3.36448 -2.04557 -0.04808
C 2.93199 -0.87453 -0.52487
C 2.99316 0.40054 0.21127
C 3.99699 0.75886 1.01548
H 3.31238 -2.95767 -0.64112
H 3.77774 -2.12681 0.95803
H 2.47604 -0.83876 -1.51750
H 2.14736 1.07635 0.06733
H 4.87326 0.12301 1.14651
H 3.98078 1.70342 1.55735
