20
	-311.7019129525
C -1.07395 -0.19661 -0.20077
C -0.25768 0.85461 -0.30725
C -0.19084 1.73873 -1.48437
C -0.30802 1.32344 -2.74910
H -1.06584 -0.83496 0.68160
H -1.78606 -0.44352 -0.98900
H 0.41629 1.10228 0.51569
H -0.00850 2.79771 -1.28499
H -0.43907 0.26671 -2.98523
H -0.26880 2.02052 -3.58512
C 3.01094 2.67004 -0.52500
C 3.34240 1.72194 0.35668
C 3.57599 0.30489 0.02395
C 2.97916 -0.35071 -0.97546
H 2.83398 3.69857 -0.21282
H 2.91701 2.44870 -1.58817
H 3.47014 1.99809 1.40668
H 4.27977 -0.23037 0.66628
H 2.23378 0.13017 -1.60906
H 3.20584 -1.39651 -1.17864
