20
	-311.7013428453
C -0.39861 0.55978 0.39232
C -0.93328 0.51851 -0.83208
C -0.40067 -0.25428 -1.96885
C 0.37378 -1.33809 -1.86838
H -0.85975 1.14245 1.18870
H 0.51491 0.01751 0.63737
H -1.83164 1.10737 -1.03375
H -0.68071 0.10269 -2.96296
H 0.65732 -1.75219 -0.90061
H 0.75596 -1.84419 -2.75339
C 3.90878 -0.02623 -1.93516
C 3.14978 0.43626 -0.93885
C 3.24300 -0.02739 0.45691
C 3.43788 -1.29943 0.81694
H 3.78225 0.32908 -2.95682
H 4.68932 -0.76640 -1.75603
H 2.40428 1.20839 -1.14287
H 3.11782 0.73331 1.23232
H 3.51641 -2.08968 0.06944
H 3.51663 -1.59127 1.86336
