20
	-311.7021666787
C -0.13309 -0.44985 0.96087
C -0.95676 0.03512 0.02778
C -0.85502 -0.26451 -1.41195
C -0.42669 -1.42463 -1.91913
H -0.26542 -0.20333 2.01359
H 0.71013 -1.09039 0.70037
H -1.75673 0.71844 0.32376
H -1.17071 0.52846 -2.09513
H -0.15044 -2.25653 -1.27099
H -0.35297 -1.58317 -2.99429
C 2.89509 0.61230 -0.82974
C 3.69243 -0.17531 -0.10301
C 3.47894 -1.61977 0.09991
C 2.93548 -2.44281 -0.80222
H 3.11155 1.67245 -0.95507
H 1.99104 0.22800 -1.30323
H 4.55871 0.26026 0.40133
H 3.80901 -2.02821 1.05875
H 2.64008 -2.08410 -1.78836
H 2.78321 -3.50017 -0.58924
