20
	-311.7015499010
C -0.89036 0.25536 1.10396
C -0.20602 -0.19322 0.04861
C 0.12959 -1.60879 -0.18769
C 0.43397 -2.48658 0.77243
H -1.09071 1.31699 1.24139
H -1.28435 -0.42820 1.85680
H 0.13646 0.51316 -0.71094
H 0.15058 -1.93123 -1.23143
H 0.47664 -2.18650 1.82017
H 0.65787 -3.52754 0.54311
C 3.65932 1.47308 0.08492
C 3.17343 0.23729 -0.05661
C 3.07715 -0.47826 -1.34151
C 2.79310 0.10069 -2.51163
H 3.68501 1.96533 1.05606
H 4.06005 2.02593 -0.76540
H 2.82048 -0.30677 0.82229
H 3.22636 -1.56001 -1.30381
H 2.58455 1.16923 -2.57735
H 2.75141 -0.47287 -3.43661
