20
	-311.7021461395
C 0.02604 -1.62023 1.22956
C -0.42058 -0.39575 0.93349
C -0.69089 0.09216 -0.43105
C -0.01234 -0.28589 -1.51785
H 0.22764 -1.91943 2.25739
H 0.18935 -2.36565 0.45107
H -0.61938 0.30668 1.74722
H -1.49352 0.82720 -0.53083
H 0.82990 -0.97555 -1.45332
H -0.26634 0.09997 -2.50428
C 3.19718 -2.51713 -0.41243
C 3.65543 -1.59727 -1.26696
C 3.93307 -0.19239 -0.91741
C 3.24758 0.51010 -0.01131
H 2.99016 -3.53782 -0.73170
H 3.02985 -2.27853 0.63804
H 3.85888 -1.88865 -2.30083
H 4.74714 0.29011 -1.46418
H 2.39390 0.08185 0.51489
H 3.50678 1.54337 0.21594
