20
	-311.7019088468
C -0.48423 0.37142 1.16041
C -0.73846 0.07356 -0.11740
C -0.71741 -1.28608 -0.68674
C 0.06437 -2.27995 -0.25545
H -0.49785 1.40081 1.51655
H -0.26506 -0.40650 1.89181
H -0.99840 0.88134 -0.80665
H -1.38569 -1.46372 -1.53308
H 0.78166 -2.13308 0.55221
H 0.02263 -3.26843 -0.71101
C 3.97508 -0.98188 -0.66838
C 3.00498 -0.36383 0.00960
C 2.89246 -0.35889 1.47907
C 3.18597 -1.40063 2.26287
H 3.99858 -0.97774 -1.75720
H 4.78401 -1.50127 -0.15337
H 2.22988 0.18336 -0.53137
H 2.51889 0.56234 1.93315
H 3.51211 -2.35085 1.83823
H 3.10261 -1.34088 3.34724
