20
	-311.7021555244
C -0.11442 1.59065 0.69661
C -0.48060 1.59823 -0.58883
C -0.77670 0.39288 -1.38415
C -0.17661 -0.78896 -1.21825
H 0.11287 2.51331 1.22917
H -0.04570 0.65917 1.25877
H -0.58703 2.55670 -1.10378
H -1.52814 0.50505 -2.16979
H 0.61676 -0.92830 -0.48315
H -0.44716 -1.64949 -1.82884
C 2.87502 -0.42528 1.42848
C 3.36944 -1.08751 0.37803
C 3.78606 -0.45988 -0.88901
C 3.21010 0.62124 -1.42180
H 2.56335 -0.94482 2.33374
H 2.78197 0.66085 1.41843
H 3.49488 -2.17141 0.44592
H 4.61138 -0.94228 -1.41875
H 2.34931 1.09819 -0.95200
H 3.56979 1.04970 -2.35641
