20
	-311.7021456868
C -0.09194 -0.98704 1.65372
C -0.51095 0.24257 1.33917
C -0.77618 0.71404 -0.03208
C -0.11172 0.30223 -1.11531
H 0.10748 -1.27382 2.68550
H 0.04986 -1.74907 0.88715
H -0.68916 0.96292 2.14194
H -1.56197 1.46583 -0.14069
H 0.71483 -0.40543 -1.04298
H -0.36132 0.67753 -2.10693
C 3.04890 -1.98166 -0.00088
C 3.52842 -1.08168 -0.86487
C 3.84058 0.31942 -0.52963
C 3.17379 1.04753 0.37016
H 2.81691 -3.00013 -0.30991
H 2.88849 -1.72874 1.04733
H 3.72360 -1.38814 -1.89596
H 4.66544 0.77642 -1.08212
H 2.31080 0.64581 0.90210
H 3.45860 2.07639 0.58654
