20
	-311.7021556655
C 0.12316 0.43487 -0.03573
C -0.52709 -0.34152 -0.90678
C -0.18113 -1.74559 -1.19273
C 0.32533 -2.60136 -0.29965
H -0.18691 1.46343 0.14429
H 0.99665 0.07429 0.50842
H -1.36425 0.07474 -1.47280
H -0.37354 -2.09411 -2.21087
H 0.48483 -2.30669 0.73773
H 0.58144 -3.62421 -0.57317
C 3.42593 -0.29040 -1.49993
C 4.07930 0.18333 -0.43550
C 3.82614 -0.23773 0.95425
C 3.44120 -1.46439 1.31971
H 3.66580 0.04956 -2.50659
H 2.61757 -1.01513 -1.39734
H 4.84527 0.95012 -0.57602
H 3.98363 0.52004 1.72631
H 3.32157 -2.26140 0.58555
H 3.24877 -1.71352 2.36254
