20
	-311.7015252540
C -0.19493 0.96543 0.60489
C -0.48475 1.13883 -0.68826
C -0.27279 0.13240 -1.74439
C -0.30515 -1.19089 -1.55947
H -0.39614 1.74581 1.33760
H 0.26878 0.04860 0.96912
H -0.90107 2.09526 -1.01434
H -0.09216 0.52071 -2.74997
H -0.52649 -1.62303 -0.58325
H -0.12308 -1.88324 -2.38024
C 2.93518 -1.78514 0.79854
C 2.90300 -0.57980 0.22290
C 3.44274 0.65211 0.82540
C 4.54102 0.70901 1.58313
H 2.53105 -2.66324 0.29614
H 3.35622 -1.92901 1.79423
H 2.41581 -0.47064 -0.74857
H 2.89151 1.57027 0.60754
H 5.14076 -0.18060 1.77842
H 4.88423 1.64632 2.01900
