20
	-311.7010306664
C -0.48285 0.46171 2.12266
C -0.46113 0.91134 0.86459
C -0.25813 0.06118 -0.32236
C -0.71884 -1.18647 -0.44638
H -0.65236 1.13172 2.96434
H -0.32080 -0.59276 2.34922
H -0.57631 1.98244 0.68014
H 0.30967 0.50236 -1.14486
H -1.32720 -1.64753 0.33239
H -0.51480 -1.77885 -1.33729
C 4.27953 1.06743 0.35198
C 3.22043 0.25865 0.26090
C 3.05520 -0.78538 -0.76680
C 3.48218 -0.68406 -2.02855
H 4.34247 1.83673 1.12046
H 5.12486 0.97475 -0.33082
H 2.41327 0.34824 0.99182
H 2.51794 -1.68459 -0.45653
H 3.97032 0.22151 -2.39042
H 3.34746 -1.49591 -2.74206
