20
	-311.7015136156
C -0.10984 -0.50929 2.03263
C 0.21189 -0.17058 0.78084
C -0.29462 -0.84688 -0.42658
C -1.52606 -1.34740 -0.55542
H 0.28681 0.03806 2.88697
H -0.77055 -1.35133 2.24210
H 0.92635 0.63959 0.61886
H 0.40507 -0.91669 -1.26315
H -2.26280 -1.25061 0.24276
H -1.84207 -1.85524 -1.46566
C 3.29116 -1.54454 -0.14052
C 3.92250 -0.41706 -0.48179
C 3.85393 0.85040 0.26801
C 3.66445 0.95124 1.58717
H 3.40092 -2.45324 -0.73095
H 2.63118 -1.59083 0.72574
H 4.53254 -0.40485 -1.38849
H 3.98655 1.76371 -0.31766
H 3.57263 0.06624 2.21738
H 3.60709 1.92087 2.07984
