20
	-311.7009951345
C 0.08700 -1.28580 2.93492
C -0.26900 -0.04384 2.59447
C -0.22720 0.50664 1.22848
C -0.31399 -0.21157 0.10584
H 0.01719 -1.63767 3.96286
H 0.46108 -1.99576 2.19629
H -0.60762 0.63815 3.37768
H -0.13445 1.59197 1.15646
H -0.46279 -1.29157 0.12602
H -0.24585 0.25964 -0.87280
C 3.12038 -0.99837 0.38128
C 3.67450 0.09679 -0.15054
C 3.41120 1.47801 0.28924
C 2.95063 1.83802 1.49119
H 3.37147 -1.99149 0.01089
H 2.39639 -0.93055 1.19285
H 4.36149 -0.01485 -0.99253
H 3.60971 2.25927 -0.44823
H 2.75471 1.10596 2.27551
H 2.75428 2.88229 1.73161
