20
	-311.7008460070
C -0.05543 0.55684 0.96817
C -0.66599 1.07924 -0.09902
C -0.90979 0.36327 -1.36431
C -0.13334 -0.60750 -1.85404
H 0.10770 1.14472 1.87089
H 0.29257 -0.47627 0.97727
H -1.03544 2.10656 -0.04754
H -1.79027 0.67565 -1.93163
H 0.77995 -0.91405 -1.34414
H -0.38060 -1.11232 -2.78703
C 3.51389 -0.69791 2.08481
C 4.01873 -1.00224 0.88592
C 3.54386 -0.43849 -0.39028
C 3.04085 0.79064 -0.53664
H 3.91716 -1.13167 2.99872
H 2.67277 -0.01179 2.18764
H 4.83087 -1.73087 0.82197
H 3.62720 -1.08614 -1.26706
H 2.98308 1.48361 0.30255
H 2.66696 1.14263 -1.49671
