20
	-311.7015098509
C -0.09830 -0.29273 1.24462
C 0.21459 0.50570 0.22005
C -0.31215 0.35920 -1.14849
C -1.55063 -0.04171 -1.44656
H 0.31430 -0.12541 2.23887
H -0.76728 -1.14475 1.11822
H 0.93690 1.30967 0.37750
H 0.37834 0.61727 -1.95534
H -2.27887 -0.25917 -0.66451
H -1.88117 -0.15064 -2.47864
C 3.29394 -0.34880 -1.19019
C 3.92480 0.81338 -0.99611
C 3.84969 1.62033 0.23529
C 3.65707 1.12862 1.46307
H 3.40893 -0.90450 -2.11992
H 2.62985 -0.77186 -0.43633
H 4.53925 1.22379 -1.80139
H 3.97968 2.69865 0.11276
H 3.56874 0.05616 1.63839
H 3.59442 1.78167 2.33245
