20
	-311.7018232912
C -0.59179 -1.21317 0.43816
C -0.29923 0.06263 0.17243
C -0.11189 0.60923 -1.18246
C 0.43944 -0.06138 -2.19787
H -0.70202 -1.57044 1.46133
H -0.74258 -1.93720 -0.36275
H -0.19795 0.76996 0.99889
H -0.44011 1.64019 -1.33905
H 0.83349 -1.06785 -2.05880
H 0.53414 0.38397 -3.18757
C 2.80291 -2.25408 0.05805
C 3.36394 -1.17431 -0.49416
C 3.19645 0.20231 0.00220
C 3.04108 0.53224 1.28700
H 2.97787 -3.25245 -0.34095
H 2.13628 -2.16706 0.91550
H 3.98144 -1.29411 -1.38819
H 3.20769 0.99112 -0.75301
H 3.06360 -0.22251 2.07353
H 2.89907 1.56746 1.59436
