20
	-311.7015197491
C -0.21878 1.69426 1.75207
C -0.09020 1.04873 0.58932
C -0.28889 -0.40006 0.40718
C -1.19699 -1.13034 1.05960
H -0.07166 2.77155 1.81987
H -0.46336 1.16471 2.67360
H 0.21696 1.61101 -0.29518
H 0.35755 -0.88087 -0.33126
H -1.89043 -0.67265 1.76593
H -1.28719 -2.20370 0.89818
C 3.24376 0.41720 -0.21555
C 3.30634 1.12687 -1.34644
C 2.72329 2.46747 -1.53658
C 2.55942 3.37585 -0.56997
H 3.71474 -0.56182 -0.13729
H 2.70691 0.78246 0.66005
H 3.81240 0.69692 -2.21448
H 2.42336 2.72151 -2.55646
H 2.88584 3.18303 0.45222
H 2.10514 4.34470 -0.77275
