20
	-311.7021539624
C -0.41432 0.61296 0.20771
C -0.70119 1.15751 -0.97788
C 0.16328 1.06692 -2.16848
C 0.94506 0.02370 -2.46341
H -1.09934 0.70151 1.04997
H 0.52203 0.08103 0.37966
H -1.62466 1.73042 -1.09381
H 0.13728 1.91954 -2.85226
H 0.96164 -0.86605 -1.83373
H 1.57990 0.02057 -3.34860
C 2.88921 2.18326 0.38720
C 3.32390 1.36568 1.34999
C 3.26328 -0.10584 1.28570
C 3.37201 -0.82385 0.16359
H 2.97181 3.26493 0.48523
H 2.41929 1.79840 -0.51842
H 3.73921 1.79232 2.26649
H 3.13316 -0.62707 2.23782
H 3.55198 -0.34467 -0.79892
H 3.29906 -1.91065 0.17414
