20
	-311.7012588824
C -0.18700 0.86363 0.49894
C -0.83683 -0.20397 0.02557
C -0.92475 -1.51020 0.70348
C 0.00229 -2.00865 1.52665
H -0.14494 1.79676 -0.06133
H 0.31313 0.84099 1.46726
H -1.36233 -0.12115 -0.92935
H -1.81657 -2.10376 0.48730
H 0.93129 -1.47645 1.72963
H -0.12970 -2.97745 2.00625
C 3.43474 0.02869 0.29578
C 2.84812 -1.05299 -0.22405
C 3.35659 -2.42936 -0.08615
C 3.97877 -2.90220 0.99702
H 2.99303 1.01795 0.18296
H 4.37992 -0.03967 0.83549
H 1.92261 -0.93052 -0.79101
H 3.17875 -3.09848 -0.93173
H 4.12766 -2.28030 1.88051
H 4.34684 -3.92622 1.04153
