20
	-311.7021781262
C 1.11745 2.12949 -0.72282
C 0.27791 1.29572 -1.34456
C -0.62772 0.35429 -0.66165
C -0.35266 -0.25496 0.49481
H 1.77995 2.79069 -1.28005
H 1.15561 2.18487 0.36527
H 0.23288 1.30567 -2.43680
H -1.57409 0.14267 -1.16577
H 0.60260 -0.11269 1.00128
H -1.06796 -0.93196 0.96008
C 3.49269 0.48315 1.53670
C 3.31831 -0.83533 1.66954
C 3.32418 -1.79899 0.55396
C 2.89396 -1.52768 -0.68124
H 3.45797 1.15130 2.39632
H 3.69010 0.93156 0.56286
H 3.17239 -1.25257 2.66940
H 3.69316 -2.80180 0.78337
H 2.46834 -0.55668 -0.93650
H 2.93526 -2.27705 -1.47069
