20
	-311.7015546141
C -0.49338 -1.67348 1.37081
C -0.16623 -0.38562 1.23117
C -0.15726 0.33981 -0.05181
C -1.03169 0.13607 -1.04031
H -0.49989 -2.15793 2.34629
H -0.75708 -2.28601 0.50774
H 0.14642 0.18393 2.10965
H 0.62583 1.09191 -0.17102
H -1.85109 -0.57579 -0.93474
H -0.96527 0.68367 -1.97937
C 3.54597 0.94735 1.21663
C 3.18469 -0.32164 1.00639
C 3.00373 -0.92984 -0.32396
C 3.75041 -0.64279 -1.39313
H 3.68251 1.34232 2.22244
H 3.70796 1.63372 0.38465
H 2.97655 -0.96641 1.86362
H 2.20034 -1.66505 -0.40888
H 4.58726 0.05357 -1.32958
H 3.55860 -1.10428 -2.36079
