20
	-311.7019157462
C -0.31113 1.05525 0.34067
C -0.92629 0.27969 -0.55662
C -0.44009 -1.03912 -1.00112
C 0.26731 -1.88686 -0.24811
H -0.73047 2.01570 0.63741
H 0.63747 0.76466 0.79246
H -1.84945 0.63396 -1.02216
H -0.70187 -1.33084 -2.02167
H 0.51154 -1.65674 0.78903
H 0.61424 -2.84156 -0.64163
C 3.56569 0.20629 1.40651
C 3.29423 -0.23337 0.17413
C 2.93594 0.63582 -0.96073
C 3.47027 1.83880 -1.18489
H 3.84342 -0.47652 2.20840
H 3.50867 1.26766 1.65103
H 3.30998 -1.30791 -0.02481
H 2.18233 0.24159 -1.64590
H 4.25367 2.23988 -0.54084
H 3.15183 2.45427 -2.02510
