20
	-311.7015385630
C 0.35497 0.36543 2.60902
C 0.07185 0.87809 1.40812
C -0.10348 0.08277 0.17959
C -0.66528 -1.12791 0.13741
H 0.45742 0.99831 3.48952
H 0.50151 -0.70671 2.74574
H -0.01447 1.96181 1.29811
H 0.25695 0.54193 -0.74372
H -1.07408 -1.59505 1.03405
H -0.74751 -1.68367 -0.79558
C 2.89069 2.48388 -0.88234
C 3.09449 1.63704 0.13079
C 3.29778 0.18516 -0.02071
C 3.95682 -0.38425 -1.03288
H 2.76293 3.55253 -0.71494
H 2.83679 2.13060 -1.91280
H 3.08645 2.01824 1.15467
H 2.87450 -0.44224 0.76690
H 4.42990 0.21565 -1.81108
H 4.05746 -1.46610 -1.10792
