20
	-311.7007502654
C -1.62684 1.43591 1.23717
C -0.47216 1.38550 0.56761
C 0.24894 0.14585 0.22748
C -0.33974 -1.01558 -0.07205
H -2.12428 2.38233 1.44482
H -2.10350 0.52957 1.61191
H 0.00030 2.32035 0.25454
H 1.33981 0.20702 0.20809
H -1.42570 -1.10833 -0.11500
H 0.25077 -1.90188 -0.29904
C 4.03987 0.69059 -0.77244
C 4.03265 -0.59155 -0.39533
C 3.57176 -1.71006 -1.23785
C 2.58520 -1.62916 -2.13518
H 4.37490 1.47934 -0.10028
H 3.72517 0.98808 -1.77317
H 4.40430 -0.85469 0.59824
H 4.07992 -2.66638 -1.09071
H 2.01354 -0.71115 -2.27248
H 2.30226 -2.48567 -2.74562
