20
	-311.7013670373
C -0.06451 0.57947 1.16084
C -0.64809 0.96042 0.02037
C -0.52508 0.25635 -1.26914
C -0.31370 -1.05573 -1.40842
H -0.21546 1.13533 2.08527
H 0.59266 -0.28932 1.20163
H -1.25989 1.86594 0.01538
H -0.63708 0.87169 -2.16543
H -0.23691 -1.71618 -0.54464
H -0.22133 -1.51441 -2.39197
C 4.40292 -1.82452 -2.00418
C 3.29693 -1.13703 -1.70791
C 3.04764 -0.46361 -0.42127
C 3.47199 -0.90984 0.76460
H 4.52600 -2.31695 -2.96786
H 5.22855 -1.90331 -1.29609
H 2.51074 -1.03539 -2.45942
H 2.45174 0.45087 -0.46137
H 4.01833 -1.84912 0.85715
H 3.27689 -0.35454 1.68139
