20
	-311.7013627152
C -1.20467 0.18957 2.03198
C -0.10724 0.47423 1.32608
C 0.17771 -0.03911 -0.02523
C -0.17760 -1.24841 -0.46898
H -1.35450 0.58526 3.03560
H -1.99644 -0.43741 1.62069
H 0.64260 1.14724 1.74808
H 0.74124 0.62366 -0.68566
H -0.68862 -1.96396 0.17609
H 0.04118 -1.56379 -1.48854
C 3.29952 -0.33303 -1.86509
C 3.78643 0.83931 -1.44699
C 3.64265 1.37678 -0.08167
C 3.52284 0.63674 1.02453
H 3.46135 -0.67991 -2.88476
H 2.71203 -0.97323 -1.20672
H 4.32732 1.47108 -2.15596
H 3.65562 2.46576 0.01012
H 3.54707 -0.45244 0.98781
H 3.40897 1.09667 2.00524
