20
	-311.7010333898
C -0.77269 -1.52062 1.40363
C -0.62039 -0.37503 0.73295
C -0.08419 -0.27519 -0.63645
C -0.30016 -1.17412 -1.60060
H -1.18937 -1.54141 2.40962
H -0.47375 -2.47450 0.96749
H -0.88342 0.56674 1.22122
H 0.52835 0.60250 -0.85572
H -0.94159 -2.04057 -1.43611
H 0.14563 -1.06235 -2.58801
C 4.04761 0.15569 1.49094
C 3.16456 -0.45471 0.69611
C 3.34141 -0.64478 -0.75517
C 3.94385 0.22785 -1.56773
H 3.85766 0.28725 2.55535
H 4.99628 0.52967 1.10423
H 2.24571 -0.85914 1.12744
H 2.91695 -1.55938 -1.17566
H 4.32822 1.17753 -1.19403
H 4.06195 0.02715 -2.63173
