20
	-311.7012676249
C -0.04135 -1.00729 2.23919
C -0.40481 -0.10023 1.32809
C -0.38884 -0.32712 -0.12838
C -0.69681 -1.48729 -0.71483
H -0.08870 -0.79408 3.30616
H 0.32621 -1.99048 1.94299
H -0.71846 0.89264 1.66071
H -0.10587 0.52750 -0.74755
H -1.02640 -2.34733 -0.13098
H -0.64511 -1.60796 -1.79599
C 3.21393 1.87468 -0.34769
C 2.91404 0.64116 0.06830
C 3.14846 -0.58470 -0.71610
C 4.20226 -0.78287 -1.51220
H 3.03636 2.74626 0.28116
H 3.63765 2.05141 -1.33694
H 2.43801 0.50468 1.04213
H 2.39678 -1.37062 -0.61101
H 4.99217 -0.03646 -1.60304
H 4.31725 -1.70153 -2.08607
