20
	-311.7015996550
C 0.11584 1.41904 0.48549
C -0.43600 1.23697 -0.71770
C -0.78865 -0.07380 -1.29312
C -0.14574 -1.21772 -1.04108
H 0.37246 2.41296 0.84926
H 0.32620 0.58115 1.14988
H -0.66690 2.11085 -1.33242
H -1.63485 -0.08265 -1.98495
H 0.73416 -1.24835 -0.39826
H -0.47175 -2.15735 -1.48538
C 3.73824 -1.09999 -0.46605
C 3.24928 0.13672 -0.33637
C 3.51069 1.02042 0.81394
C 3.63544 0.60314 2.07665
H 3.49239 -1.71842 -1.32833
H 4.41169 -1.52558 0.27867
H 2.61168 0.54516 -1.12373
H 3.58087 2.08921 0.59647
H 3.51833 -0.44912 2.33790
H 3.84492 1.29792 2.88875
