20
	-311.7021588187
C 0.37626 -0.84538 2.73933
C 0.21345 0.42640 2.36162
C -0.44185 0.85347 1.11221
C -0.40393 0.16868 -0.03413
H 0.88750 -1.10291 3.66607
H -0.01093 -1.66732 2.13695
H 0.57209 1.22411 3.01752
H -0.97235 1.80835 1.14712
H 0.15982 -0.76037 -0.12563
H -0.91964 0.52838 -0.92357
C 2.21112 -2.91648 0.30957
C 2.50543 -2.28858 -0.83306
C 3.27877 -1.03713 -0.92740
C 3.25706 -0.06539 -0.01113
H 1.61726 -3.82956 0.32076
H 2.56985 -2.54175 1.26838
H 2.17059 -2.72377 -1.77840
H 3.88854 -0.91209 -1.82574
H 2.61938 -0.12875 0.87115
H 3.86110 0.83360 -0.12698
