20
	-311.7021341198
C 0.84933 -1.29909 2.86640
C -0.12959 -0.39779 2.74958
C -0.60413 0.15647 1.46873
C -0.63084 -0.51450 0.31295
H 1.14903 -1.68382 3.84038
H 1.39543 -1.66392 1.99586
H -0.61503 -0.01565 3.65112
H -0.96837 1.18699 1.49188
H -0.32335 -1.55897 0.25926
H -0.97350 -0.04670 -0.60916
C 2.64235 -1.82230 -0.73178
C 3.62427 -1.63251 0.15501
C 4.03589 -0.31918 0.68283
C 3.20750 0.70988 0.88066
H 2.36802 -2.82001 -1.07224
H 2.09282 -0.98120 -1.15491
H 4.18526 -2.49780 0.51788
H 5.09271 -0.21158 0.93980
H 2.13729 0.62572 0.68893
H 3.57244 1.66296 1.26139
