20
	-311.7018396614
C -0.45258 0.18527 0.51311
C -0.16125 0.71259 -0.67898
C -0.27977 -0.00488 -1.95990
C -0.05100 -1.31152 -2.11908
H -0.32783 0.75544 1.43288
H -0.83789 -0.83046 0.60411
H 0.18166 1.74835 -0.73412
H -0.56060 0.59704 -2.82817
H 0.28873 -1.92870 -1.28777
H -0.17483 -1.79573 -3.08707
C 2.67890 -1.51067 0.69000
C 3.13119 -1.35273 -0.55750
C 3.17445 -0.06643 -1.27379
C 3.38921 1.11727 -0.69385
H 2.68825 -2.48377 1.17947
H 2.26828 -0.67154 1.25077
H 3.48249 -2.22722 -1.11126
H 3.02084 -0.11132 -2.35407
H 3.58511 1.19735 0.37572
H 3.38874 2.04128 -1.27050
