20
	-311.7021651891
C -0.14016 -0.37416 1.31578
C -0.66362 0.84397 1.15246
C -0.27900 1.78060 0.08106
C 0.10710 1.41608 -1.14547
H -0.47377 -1.02872 2.11996
H 0.65169 -0.74657 0.66501
H -1.41658 1.20135 1.85944
H -0.33387 2.84480 0.32518
H 0.12713 0.36750 -1.44280
H 0.40006 2.15269 -1.89259
C 3.31727 0.86983 1.27793
C 3.83650 -0.34122 1.05851
C 3.42174 -1.24215 -0.03208
C 3.00159 -0.83772 -1.23469
H 3.67383 1.49730 2.09378
H 2.50655 1.26290 0.66358
H 4.60985 -0.72093 1.73100
H 3.48320 -2.31379 0.17511
H 2.97344 0.22008 -1.49674
H 2.68764 -1.54948 -1.99721
