20
	-311.7021570083
C 0.01203 -0.94944 2.48174
C -0.28839 0.26246 2.00472
C -0.72425 0.53613 0.62338
C -0.31849 -0.15083 -0.44806
H 0.34929 -1.08963 3.50796
H -0.08531 -1.84057 1.86142
H -0.22628 1.12546 2.67295
H -1.41169 1.37543 0.49119
H 0.40858 -0.95953 -0.36615
H -0.68638 0.08934 -1.44478
C 2.65034 -2.71039 0.61461
C 3.08579 -2.06230 -0.47030
C 3.63444 -0.69408 -0.46669
C 3.24053 0.27597 0.36281
H 2.23473 -3.71513 0.54875
H 2.71155 -2.25884 1.60497
H 3.05467 -2.56915 -1.43843
H 4.40084 -0.47881 -1.21551
H 2.44078 0.11766 1.08704
H 3.69261 1.26637 0.32776
