20
	-311.7021604158
C -0.47515 0.67302 0.58112
C -0.55883 1.02516 -0.70556
C -0.44695 0.09021 -1.83979
C 0.31449 -1.00738 -1.84228
H -0.54479 1.41120 1.37914
H -0.34857 -0.36933 0.87411
H -0.73578 2.07404 -0.95783
H -1.02085 0.34477 -2.73437
H 0.94385 -1.26690 -0.99033
H 0.34748 -1.66959 -2.70648
C 2.63993 -1.04627 1.48847
C 3.44838 -1.30992 0.45725
C 3.97945 -0.29720 -0.47312
C 3.32920 0.81200 -0.83522
H 2.26092 -1.83935 2.13187
H 2.34459 -0.02457 1.72799
H 3.76203 -2.34212 0.28028
H 4.96665 -0.50013 -0.89586
H 2.32059 1.02452 -0.47920
H 3.77893 1.53227 -1.51745
