20
	-311.7021619714
C -0.16678 -0.73367 1.03513
C -0.63811 0.51429 1.10319
C -0.25688 1.60153 0.18370
C 0.05137 1.43451 -1.10612
H -0.49571 -1.50012 1.73576
H 0.57683 -1.02285 0.29180
H -1.34094 0.77777 1.89761
H -0.24551 2.61029 0.60497
H 0.00317 0.45192 -1.57594
H 0.34622 2.27426 -1.73418
C 3.35376 0.36571 0.98592
C 3.79841 -0.81929 0.55868
C 3.27305 -1.53165 -0.62007
C 2.79877 -0.93763 -1.71950
H 3.79020 0.85149 1.85769
H 2.52688 0.87630 0.49120
H 4.59209 -1.32478 1.11455
H 3.29489 -2.62373 -0.57548
H 2.80607 0.14756 -1.82315
H 2.40364 -1.51622 -2.55356
