20
	-311.7019412367
C -0.77214 -0.26199 1.45181
C -0.05499 0.01965 0.36138
C 0.15325 -0.91320 -0.76032
C 0.31930 -2.23226 -0.62573
H -0.87362 0.45466 2.26559
H -1.29133 -1.21512 1.55813
H 0.41993 0.99825 0.26390
H 0.19375 -0.46909 -1.75806
H 0.33510 -2.70064 0.35917
H 0.45224 -2.88221 -1.48960
C 2.98583 0.86021 -1.66825
C 3.22640 1.59304 -0.57692
C 3.66974 1.05315 0.72122
C 3.35853 -0.15958 1.18746
H 2.64218 1.31825 -2.59494
H 3.13541 -0.21950 -1.67152
H 3.10662 2.67828 -0.63218
H 4.28148 1.71874 1.33541
H 2.70979 -0.83634 0.63110
H 3.72990 -0.50559 2.15117
