20
	-311.7021716127
C -0.19761 1.03511 0.20784
C -0.78430 0.23009 -0.68219
C -0.42118 -1.18216 -0.89752
C 0.02319 -2.00770 0.05509
H -0.51884 2.06854 0.33150
H 0.63424 0.69400 0.82502
H -1.57823 0.62703 -1.31984
H -0.54498 -1.56428 -1.91427
H 0.11310 -1.67917 1.09064
H 0.29601 -3.03863 -0.16709
C 3.18417 0.27094 -1.04140
C 3.77948 0.77666 0.04211
C 3.44664 0.40070 1.42800
C 3.03823 -0.81332 1.80987
H 3.48143 0.57721 -2.04357
H 2.36788 -0.44757 -0.96036
H 4.55590 1.53616 -0.07943
H 3.56227 1.18262 2.18324
H 2.95858 -1.63335 1.09590
H 2.78597 -1.02863 2.84747
