20
	-311.7018480701
C -0.31591 -0.27687 1.23072
C 0.12145 0.78306 0.54563
C -0.11344 1.00038 -0.89212
C -0.15498 0.02732 -1.80650
H -0.09821 -0.39802 2.29122
H -0.91718 -1.05053 0.75276
H 0.68428 1.56046 1.06770
H -0.24486 2.03797 -1.21035
H 0.03360 -1.01061 -1.53274
H -0.35441 0.24256 -2.85563
C 2.34915 -2.34814 0.08006
C 2.88660 -1.61288 -0.89789
C 3.22342 -0.18377 -0.78100
C 3.63577 0.40923 0.34239
H 2.13808 -3.40809 -0.05597
H 2.08701 -1.90374 1.03968
H 3.08333 -2.07853 -1.86711
H 3.12435 0.41037 -1.69196
H 3.78422 -0.15784 1.26172
H 3.84973 1.47668 0.37572
