20
	-311.7018319899
C -0.43008 -0.20326 0.27930
C -0.40728 1.04316 -0.20070
C 0.07347 1.40941 -1.54405
C -0.07886 0.65245 -2.63391
H -0.81685 -0.42142 1.27408
H -0.03926 -1.03739 -0.30288
H -0.74889 1.86592 0.43292
H 0.57620 2.37542 -1.63209
H -0.61364 -0.29672 -2.59342
H 0.31369 0.96298 -3.60149
C 3.52065 1.33521 -0.80081
C 3.05957 0.34258 -0.03552
C 2.95662 -1.06345 -0.46199
C 2.69039 -1.46001 -1.71004
H 3.55396 2.36239 -0.44002
H 3.89100 1.14891 -1.80918
H 2.73405 0.56222 0.98359
H 3.09509 -1.81689 0.31778
H 2.48974 -0.73695 -2.50009
H 2.64565 -2.51603 -1.97349
