20
	-311.7018436731
C 0.09621 -1.66258 1.95542
C -0.28704 -0.38324 1.92241
C -0.23912 0.46878 0.72188
C -0.47594 0.03756 -0.51991
H 0.01973 -2.25471 2.86663
H 0.52062 -2.14529 1.07527
H -0.64921 0.08989 2.83899
H -0.00336 1.52311 0.88464
H -0.75721 -0.99752 -0.71483
H -0.40930 0.70662 -1.37705
C 3.21330 1.18419 0.84807
C 3.18568 -0.07961 1.27865
C 3.29367 -1.26282 0.40806
C 2.82770 -1.32964 -0.84264
H 3.10666 2.02142 1.53658
H 3.35588 1.42125 -0.20653
H 3.08023 -0.27637 2.34770
H 3.77800 -2.14097 0.84305
H 2.28936 -0.49399 -1.28892
H 2.95316 -2.22607 -1.44865
