20
	-311.7015319399
C -0.51004 -1.80839 0.25736
C -0.13302 -0.56395 0.56418
C -0.05436 0.54748 -0.40064
C -0.89862 0.72485 -1.41990
H -0.56756 -2.58972 1.01406
H -0.76493 -2.08562 -0.76625
H 0.16908 -0.33525 1.58897
H 0.75657 1.26206 -0.24265
H -1.74473 0.05552 -1.57928
H -0.77977 1.55212 -2.11823
C 3.58424 0.52112 1.13534
C 3.22326 -0.58542 0.47935
C 3.07377 -0.67865 -0.98402
C 3.84675 -0.03759 -1.86426
H 3.69653 0.53079 2.21868
H 3.77074 1.45656 0.60633
H 2.99097 -1.48989 1.04672
H 2.27115 -1.32667 -1.34320
H 4.68334 0.58172 -1.53894
H 3.67721 -0.12256 -2.93670
