20
	-311.7018452743
C 0.06891 1.64627 0.12868
C -0.16656 1.00770 -1.02051
C -0.64029 -0.38348 -1.11901
C -0.29285 -1.36128 -0.27763
H 0.43687 2.67149 0.14480
H -0.11259 1.16604 1.09043
H -0.01544 1.53610 -1.96475
H -1.30825 -0.61007 -1.95425
H 0.41911 -1.18416 0.52826
H -0.69072 -2.36978 -0.38452
C 3.26675 0.09075 0.52297
C 3.23300 -0.85675 -0.41869
C 2.81875 -0.63486 -1.81455
C 3.01554 0.49803 -2.49373
H 3.60163 -0.12668 1.53645
H 2.94129 1.10861 0.31016
H 3.51243 -1.87996 -0.15432
H 2.32141 -1.47255 -2.30819
H 3.54258 1.34229 -2.04850
H 2.66754 0.61336 -3.51936
