20
	-311.7018447743
C -0.07546 2.09597 0.35237
C -0.31122 1.03078 -0.41874
C -0.00428 -0.35796 -0.03541
C -0.09870 -0.83622 1.20808
H -0.34210 3.10149 0.02895
H 0.41393 1.99134 1.32049
H -0.74642 1.17544 -1.41108
H 0.30902 -1.02565 -0.84149
H -0.44979 -0.21086 2.02912
H 0.15857 -1.86869 1.44174
C 3.48088 -0.23444 -0.65197
C 3.23732 0.99100 -0.18024
C 3.31186 1.36990 1.24122
C 3.01216 0.55750 2.25911
H 3.38839 -0.46357 -1.71274
H 3.79206 -1.04474 0.00780
H 2.96576 1.78653 -0.87742
H 3.62017 2.39708 1.45284
H 2.64780 -0.45411 2.08309
H 3.10427 0.88442 3.29409
