20
	-311.7013518787
C -0.32593 -1.50571 0.52072
C -0.19836 -0.22971 0.14906
C -0.22504 0.23227 -1.25015
C 0.34235 -0.41873 -2.26977
H -0.27072 -1.79967 1.56788
H -0.50175 -2.29420 -0.21179
H -0.06414 0.54245 0.91021
H -0.72725 1.18509 -1.43876
H 0.89328 -1.34597 -2.10792
H 0.28135 -0.04506 -3.29105
C 2.22791 2.66938 0.06497
C 2.88891 2.23629 1.14318
C 3.15704 0.82349 1.46788
C 3.20255 -0.17498 0.58177
H 2.08288 3.73344 -0.11687
H 1.81020 1.97795 -0.66723
H 3.25914 2.97062 1.86303
H 3.33585 0.60062 2.52259
H 3.06089 -0.00094 -0.48497
H 3.37724 -1.20271 0.89594
