20
	-311.7019186429
C -1.24173 -0.11386 -0.72620
C -0.00164 -0.51817 -1.01167
C 0.68101 -1.64028 -0.34326
C 0.56427 -1.93024 0.95598
H -1.69126 0.73960 -1.23185
H -1.85113 -0.63324 0.01421
H 0.57028 -0.00409 -1.78714
H 1.34043 -2.24763 -0.96835
H -0.04458 -1.31406 1.61875
H 1.07702 -2.78308 1.39887
C 3.73073 -0.28844 -1.29511
C 3.39395 0.95462 -1.65208
C 2.92988 2.00195 -0.72411
C 2.24913 1.77351 0.40245
H 4.04980 -1.02399 -2.03259
H 3.70819 -0.60540 -0.25245
H 3.47518 1.24280 -2.70348
H 3.15641 3.03234 -1.00945
H 1.95816 0.76571 0.69917
H 1.94588 2.59194 1.05401
