20
	-311.7015560625
C -0.25510 -1.09992 1.76727
C -0.22190 0.14811 1.29165
C -0.13434 0.49545 -0.13818
C -0.72872 -0.18908 -1.11855
H -0.33752 -1.30196 2.83436
H -0.19209 -1.96045 1.10007
H -0.23337 0.98656 1.99242
H 0.46000 1.37929 -0.38057
H -1.36362 -1.04964 -0.90484
H -0.61143 0.09654 -2.16295
C 3.08615 2.38266 1.17985
C 3.02071 1.06323 1.37959
C 3.22929 0.04733 0.33239
C 4.10787 0.16172 -0.66669
H 2.94069 3.09072 1.99460
H 3.27946 2.79524 0.18888
H 2.77093 0.68568 2.37405
H 2.61473 -0.85234 0.40946
H 4.76761 1.02646 -0.74568
H 4.20573 -0.61077 -1.42814
