20
	-311.7021473361
C 0.40073 -1.29296 1.49644
C -0.58795 -0.52352 1.03291
C -0.76061 -0.15084 -0.38281
C -0.43062 -0.92739 -1.41946
H 0.47049 -1.54664 2.55343
H 1.18199 -1.67455 0.83835
H -1.32062 -0.11446 1.73317
H -1.20471 0.82943 -0.57510
H -0.03203 -1.93080 -1.26899
H -0.56200 -0.59121 -2.44721
C 3.02402 0.75598 -0.05917
C 3.95459 -0.19405 0.06698
C 3.79561 -1.58468 -0.39546
C 3.08872 -1.95341 -1.46822
H 3.20358 1.77181 0.29054
H 2.04770 0.54378 -0.49608
H 4.89977 0.04578 0.56054
H 4.31249 -2.35122 0.18797
H 2.60015 -1.21469 -2.10380
H 2.98882 -3.00042 -1.75171
