20
	-311.7019186788
C 0.23106 -1.22123 2.23744
C 0.32492 -0.33594 1.24084
C -0.09766 -0.59535 -0.14700
C -1.17378 -1.31010 -0.48448
H 0.54227 -0.97455 3.25167
H -0.15421 -2.22665 2.06354
H 0.76412 0.64516 1.43809
H 0.53081 -0.16088 -0.92750
H -1.84114 -1.72151 0.27361
H -1.42846 -1.49555 -1.52700
C 2.73115 -2.59527 -0.72185
C 3.39587 -1.70414 -1.46280
C 3.52672 -0.27238 -1.13683
C 3.54577 0.23091 0.10103
H 2.68255 -3.64452 -1.01005
H 2.20047 -2.30180 0.18400
H 3.87066 -2.03190 -2.39100
H 3.62922 0.40850 -1.98597
H 3.49172 -0.41504 0.97737
H 3.62648 1.30297 0.27665
