20
	-311.7015529709
C -0.60017 0.79725 1.37903
C -0.14420 0.29516 0.22873
C -0.22287 -1.12721 -0.14939
C -0.09286 -2.14667 0.70434
H -0.49483 1.85441 1.61870
H -1.10693 0.16794 2.11143
H 0.31873 0.96045 -0.50353
H -0.37131 -1.33638 -1.21146
H 0.11112 -1.97579 1.76206
H -0.17721 -3.18120 0.37423
C 4.02392 0.88377 -0.05477
C 3.20800 -0.15924 -0.22675
C 2.80478 -0.69474 -1.53940
C 2.58829 0.04940 -2.62766
H 4.27038 1.25424 0.93926
H 4.48265 1.39112 -0.90418
H 2.79990 -0.67366 0.64618
H 2.65269 -1.77541 -1.59315
H 2.67717 1.13601 -2.59608
H 2.30794 -0.39994 -3.57940
