20
	-311.7021532306
C -0.30597 0.37215 0.54408
C -0.71676 -0.03272 -0.66163
C -0.41955 -1.35117 -1.24985
C 0.70803 -2.03567 -1.03951
H -0.53887 1.36758 0.92015
H 0.26414 -0.28839 1.19757
H -1.33008 0.64059 -1.26639
H -1.18133 -1.76665 -1.91438
H 1.51494 -1.63067 -0.42801
H 0.86687 -3.01404 -1.49121
C 3.33726 0.28851 1.00337
C 4.00293 -0.23847 -0.02891
C 3.93477 0.26092 -1.41420
C 2.85109 0.81340 -1.96606
H 3.41062 -0.13551 2.00407
H 2.70934 1.17101 0.87952
H 4.66210 -1.09285 0.14627
H 4.83972 0.14241 -2.01545
H 1.91271 0.89926 -1.41718
H 2.86375 1.17745 -2.99260
