20
	-311.7013888129
C -0.54781 -0.46704 0.81472
C -0.77404 0.24146 -0.29535
C -0.81776 -0.31519 -1.65989
C -0.15389 -1.40107 -2.06793
H -0.51600 0.00787 1.79432
H -0.39605 -1.54593 0.78275
H -0.96127 1.31468 -0.20822
H -1.43969 0.22519 -2.37790
H 0.51443 -1.94473 -1.39993
H -0.24906 -1.77054 -3.08806
C 3.33983 -1.82971 -0.42983
C 2.84889 -0.61879 -0.15039
C 3.00408 0.06982 1.14307
C 4.07822 -0.02712 1.93078
H 3.21457 -2.27839 -1.41470
H 3.87373 -2.41430 0.32015
H 2.26879 -0.09295 -0.91204
H 2.17248 0.71030 1.44526
H 4.94611 -0.61787 1.63581
H 4.13179 0.49171 2.88696
