20
	-311.7008465798
C -0.35843 -1.84539 2.72484
C -0.54571 -0.52497 2.65073
C -0.12979 0.31633 1.51449
C -0.13905 -0.07256 0.23659
H -0.70406 -2.42288 3.58109
H 0.15974 -2.38836 1.93366
H -1.02384 -0.00890 3.48741
H 0.19368 1.33300 1.75143
H -0.50251 -1.05903 -0.05343
H 0.21302 0.58740 -0.55444
C 3.31755 0.03922 -0.66348
C 3.28512 1.21913 -1.28968
C 2.57049 2.40950 -0.79456
C 2.42230 2.72464 0.49564
H 3.88052 -0.80056 -1.06881
H 2.76276 -0.12857 0.25975
H 3.80465 1.33063 -2.24485
H 2.15653 3.07758 -1.55441
H 2.86606 2.11280 1.28141
H 1.86971 3.61105 0.80474
